14
   Energy is   -721.749945822
H      -0.046969     0.017093    -1.368375
C       0.175590    -0.308616    -0.318917
N       0.064616    -1.785425    -0.303562
H       0.308261    -2.142392     0.597062
H       0.671897    -2.174376    -0.992598
C      -0.855584     0.307981     0.631588
H      -0.840358    -0.206108     1.611955
C       1.573955     0.192296     0.062442
O       2.153344     0.019454     1.113635
O       2.333487     0.902485    -0.798893
H       1.873502     1.041848    -1.617647
S      -2.544435     0.388495    -0.031500
H      -0.596025     1.364629     0.845279
H      -2.370089    -0.144105    -1.215355
14
   Energy is   -721.766551271
H      -0.010118     0.052350    -1.351787
C       0.196840    -0.282299    -0.317886
N       0.072574    -1.754139    -0.313722
H       0.278289    -2.139797     0.600784
H       0.656999    -2.192847    -1.014547
C      -0.837006     0.342730     0.630062
H      -0.816259    -0.181103     1.593901
C       1.595926     0.186387     0.091873
O       2.095637    -0.069096     1.184495
O       2.321292     0.910516    -0.831991
H       1.859904     1.080296    -1.669370
S      -2.580620     0.373131    -0.020602
H      -0.563815     1.386279     0.841638
H      -2.368448    -0.239153    -1.207734
14
   Energy is   -721.769497838
H       0.012585     0.093801    -1.361951
C       0.203819    -0.255263    -0.334490
N       0.044013    -1.719606    -0.343816
H       0.217863    -2.125848     0.571228
H       0.605666    -2.181613    -1.051814
C      -0.823792     0.384585     0.612121
H      -0.788652    -0.121624     1.582078
C       1.612128     0.171352     0.102805
O       2.098043    -0.136817     1.188096
O       2.360525     0.909444    -0.792328
H       1.898335     1.117885    -1.624245
S      -2.590982     0.345103    -0.015375
H      -0.567010     1.435289     0.790145
H      -2.381347    -0.443430    -1.107340
14
   Energy is   -721.771875207
H       0.035883     0.126039    -1.373107
C       0.210869    -0.237832    -0.350916
N       0.018091    -1.693291    -0.372280
H       0.164301    -2.116260     0.541004
H       0.558044    -2.172750    -1.086431
C      -0.809555     0.416990     0.593167
H      -0.767426    -0.068279     1.571919
C       1.625201     0.152073     0.110525
O       2.093481    -0.193570     1.192122
O       2.386320     0.916593    -0.752587
H       1.924525     1.159036    -1.578423
S      -2.588201     0.336572    -0.030785
H      -0.566781     1.474034     0.735787
H      -2.383558    -0.626097    -0.984882
14
   Energy is   -721.774077191
H       0.057663     0.156051    -1.383316
C       0.216698    -0.221242    -0.365817
N      -0.003508    -1.667851    -0.399852
H       0.117392    -2.106458     0.510190
H       0.515140    -2.160540    -1.120884
C      -0.800472     0.446064     0.573357
H      -0.755268    -0.017780     1.561003
C       1.633450     0.139440     0.120510
O       2.090731    -0.254967     1.189793
O       2.410106     0.919958    -0.715511
H       1.950106     1.193647    -1.535102
S      -2.583720     0.326328    -0.059983
H      -0.574552     1.508880     0.682564
H      -2.372572    -0.788271    -0.841838
14
   Energy is   -721.775759637
H       0.079584     0.175879    -1.397473
C       0.222986    -0.211830    -0.382941
N      -0.028938    -1.649361    -0.425686
H       0.076058    -2.101183     0.479859
H       0.461803    -2.154459    -1.157153
C      -0.790394     0.473535     0.548547
H      -0.742848     0.033365     1.546049
C       1.643186     0.115424     0.123569
O       2.082254    -0.307084     1.189479
O       2.425357     0.933432    -0.671645
H       1.969260     1.238005    -1.483993
S      -2.571927     0.309447    -0.097532
H      -0.581187     1.541640     0.624769
H      -2.344002    -0.923553    -0.680738
14
   Energy is   -721.776589354
H       0.096797     0.185840    -1.409291
C       0.225458    -0.204848    -0.394519
N      -0.053036    -1.634532    -0.430190
H       0.062727    -2.092733     0.470133
H       0.389874    -2.152062    -1.181575
C      -0.785999     0.502364     0.524809
H      -0.730965     0.094637     1.535494
C       1.645776     0.097717     0.129922
O       2.094229    -0.402241     1.157281
O       2.430548     0.948740    -0.628159
H       1.970834     1.294868    -1.422428
S      -2.559594     0.276119    -0.137078
H      -0.603521     1.576924     0.558849
H      -2.281932    -1.017536    -0.558134
14
   Energy is   -721.777199712
H       0.127615     0.160196    -1.437395
C       0.235864    -0.217119    -0.415116
N      -0.057726    -1.645544    -0.428305
H       0.093708    -2.096212     0.470767
H       0.348351    -2.172252    -1.194103
C      -0.777445     0.519631     0.483821
H      -0.720166     0.134399     1.503466
C       1.653506     0.068814     0.122309
O       2.102907    -0.468771     1.129991
O       2.417569     0.992271    -0.568163
H       1.955642     1.376075    -1.342704
S      -2.555989     0.284883    -0.161425
H      -0.589713     1.594028     0.495592
H      -2.332927    -1.057140    -0.443622
14
   Energy is   -721.777746009
H       0.143827     0.119492    -1.458499
C       0.241675    -0.237282    -0.428091
N      -0.064802    -1.662142    -0.407433
H       0.134670    -2.101021     0.487836
H       0.292403    -2.201097    -1.188265
C      -0.766096     0.533719     0.452590
H      -0.707107     0.176990     1.482746
C       1.659514     0.043064     0.110951
O       2.130136    -0.546865     1.078680
O       2.388138     1.040782    -0.510822
H       1.912317     1.463218    -1.256013
S      -2.547795     0.296646    -0.181543
H      -0.575242     1.607632     0.433234
H      -2.340445    -1.059878    -0.400258
14
   Energy is   -721.778288197
H       0.158825     0.074642    -1.477509
C       0.247411    -0.259073    -0.438644
N      -0.072438    -1.679381    -0.383979
H       0.168753    -2.105404     0.506997
H       0.246460    -2.229981    -1.172668
C      -0.753610     0.547362     0.421742
H      -0.695598     0.217102     1.461042
C       1.665866     0.020678     0.097585
O       2.168007    -0.622081     1.014295
O       2.351404     1.088479    -0.451610
H       1.858430     1.545208    -1.164366
S      -2.537238     0.310417    -0.199567
H      -0.554793     1.619517     0.374521
H      -2.350284    -1.054228    -0.372726
14
   Energy is   -721.778783267
H       0.171301     0.027876    -1.492358
C       0.253283    -0.282981    -0.445686
N      -0.080105    -1.697238    -0.357767
H       0.196434    -2.112410     0.527947
H       0.206257    -2.259613    -1.150156
C      -0.739438     0.559421     0.393387
H      -0.685761     0.256436     1.441479
C       1.673957    -0.000302     0.081998
O       2.217539    -0.690341     0.938512
O       2.305870     1.133797    -0.392281
H       1.786626     1.618834    -1.066582
S      -2.523121     0.330524    -0.221795
H      -0.528542     1.628116     0.318732
H      -2.353105    -1.038861    -0.360314
14
   Energy is   -721.779115423
H       0.185432    -0.014924    -1.502727
C       0.259347    -0.303206    -0.448152
N      -0.087841    -1.710458    -0.329799
H       0.221751    -2.119216     0.547886
H       0.170270    -2.282713    -1.124584
C      -0.728346     0.571426     0.366561
H      -0.681365     0.294863     1.422629
C       1.682691    -0.017321     0.068893
O       2.275753    -0.752049     0.851867
O       2.262187     1.170354    -0.335311
H       1.715812     1.677269    -0.970628
S      -2.509149     0.347658    -0.246108
H      -0.505967     1.636344     0.268760
H      -2.359381    -1.024768    -0.354175
14
   Energy is   -721.779219448
H       0.193333    -0.045192    -1.506755
C       0.262701    -0.315815    -0.446286
N      -0.095658    -1.717402    -0.306601
H       0.232066    -2.125836     0.564572
H       0.142004    -2.298430    -1.101435
C      -0.722146     0.580947     0.348510
H      -0.682736     0.326365     1.410680
C       1.691422    -0.030228     0.055749
O       2.325833    -0.796811     0.772177
O       2.231140     1.194208    -0.291240
H       1.664315     1.717333    -0.894567
S      -2.496966     0.357486    -0.271778
H      -0.494444     1.642985     0.232738
H      -2.349670    -1.016355    -0.350650
14
   Energy is   -721.779230360
H       0.193437    -0.044681    -1.504075
C       0.262544    -0.314491    -0.442882
N      -0.095330    -1.716916    -0.303678
H       0.229113    -2.124934     0.568818
H       0.148632    -2.298131    -1.096616
C      -0.724213     0.580203     0.349663
H      -0.687952     0.324082     1.411653
C       1.692511    -0.029979     0.055355
O       2.332964    -0.800156     0.762304
O       2.233003     1.193151    -0.296044
H       1.662660     1.718148    -0.894075
S      -2.496633     0.359169    -0.275994
H      -0.494647     1.642407     0.237784
H      -2.354896    -1.014615    -0.357101
14
   Energy is   -721.779237681
H       0.191175    -0.045926    -1.502690
C       0.262272    -0.314818    -0.441154
N      -0.096489    -1.717433    -0.301406
H       0.219798    -2.123186     0.575006
H       0.156237    -2.300710    -1.090107
C      -0.723677     0.578807     0.351132
H      -0.691016     0.320361     1.412712
C       1.694374    -0.030843     0.051003
O       2.339500    -0.802111     0.752234
O       2.231720     1.194386    -0.299434
H       1.655924     1.721945    -0.889853
S      -2.493750     0.362900    -0.282312
H      -0.491722     1.640999     0.243025
H      -2.353150    -1.011113    -0.363043
14
   Energy is   -721.779240636
H       0.189324    -0.046367    -1.501960
C       0.262174    -0.315361    -0.440511
N      -0.096767    -1.718090    -0.301261
H       0.211608    -2.120902     0.579320
H       0.167761    -2.302300    -1.085392
C      -0.723277     0.576451     0.353542
H      -0.693357     0.313707     1.414216
C       1.695159    -0.030621     0.048623
O       2.342330    -0.800349     0.749547
O       2.231014     1.194586    -0.305077
H       1.652231     1.722048    -0.892643
S      -2.492492     0.367790    -0.284556
H      -0.489052     1.638771     0.251096
H      -2.355463    -1.006108    -0.369831
14
   Energy is   -721.779241373
H       0.188516    -0.046667    -1.502188
C       0.262364    -0.315856    -0.440891
N      -0.097228    -1.718423    -0.301398
H       0.207445    -2.119697     0.581284
H       0.173052    -2.303571    -1.082959
C      -0.722590     0.575454     0.354321
H      -0.693377     0.310405     1.414470
C       1.695449    -0.030274     0.047576
O       2.343352    -0.799451     0.748389
O       2.230171     1.195385    -0.306454
H       1.650639     1.722367    -0.893724
S      -2.491791     0.369845    -0.285122
H      -0.487322     1.637765     0.254331
H      -2.357485    -1.004024    -0.372520
